pcf
* control data
restart	estimation
19	458	1	0	2
2	2	single	nopoint	1	0	0
5.0	2.0	0.3	0.01	10
5.0	5.0	0.001
0.1
20	0.005	4	3	0.01	3
0	0	0
* parameter groups
fit	relative	0.01	1e-05	switch	2.0	parabolic
* parameter data
lat     	fixed   	factor  	47.3    	40.0    	50.0    	none    	1.0     	0.0     	1       
p_air   	fixed   	factor  	960     	900     	1000    	none    	1.0     	0.0     	1       
a_seiche	none    	factor  	0.0018965829	1e-05   	0.01    	fit     	1.0     	0.0     	1       
q_NN    	none    	factor  	0.822603404	0.7     	1.25    	fit     	1.0     	0.0     	1       
f_wind  	fixed   	factor  	0.5     	0.1     	2.0     	none    	1.0     	0.0     	1       
C10     	none    	factor  	0.409504324	0.3     	2.0     	fit     	1.0     	0.0     	1       
CD      	fixed   	factor  	0.002   	0.001   	0.005   	none    	1.0     	0.0     	1       
fgeo    	fixed   	factor  	0       	0       	1.0     	none    	1.0     	0.0     	1       
k_min   	fixed   	factor  	1e-30   	1e-30   	1e-09   	none    	1.0     	0.0     	1       
p1      	none    	factor  	0.984070993	0.8     	1.2     	fit     	1.0     	0.0     	1       
p2      	none    	factor  	1.1     	0.9     	1.1     	fit     	1.0     	0.0     	1       
beta    	fixed   	factor  	0.35    	0       	0.5     	none    	1.0     	0.0     	1       
albsw   	none    	factor  	0.106930759	0       	0.3     	fit     	1.0     	0.0     	1       
sediment_exchange_k	fixed   	factor  	1.8e-05 	1e-05   	2e-05   	none    	1.0     	0.0     	1       
sediment_diffusivity	fixed   	factor  	0.005   	0.001   	0.008   	none    	1.0     	0.0     	1       
sediment_vmax	fixed   	factor  	10.0    	8.0     	12.0    	none    	1.0     	0.0     	1       
OM_sedimentation_rate	none    	factor  	0.21969082	0.01    	1.0     	fit     	1.0     	0.0     	1       
sediment_kI_o2	none    	factor  	49.944274	10      	3000    	fit     	1.0     	0.0     	1       
o2_consumption_rate	fixed   	factor  	0.01    	0.01    	0.01    	none    	1.0     	0.0     	1       
* observation groups
temp
ch4
* observation data
temp0	12.44	0.027052211054102063	temp
temp1	9.84	0.027052211054102063	temp
temp2	8.41	0.027052211054102063	temp
temp3	7.14	0.027052211054102063	temp
temp4	6.42	0.027052211054102063	temp
temp5	5.72	0.027052211054102063	temp
temp6	5.47	0.027052211054102063	temp
temp7	5.24	0.027052211054102063	temp
temp8	5.11	0.027052211054102063	temp
temp9	4.90	0.027052211054102063	temp
temp10	4.78	0.027052211054102063	temp
temp11	4.77	0.027052211054102063	temp
temp12	4.67	0.027052211054102063	temp
temp13	4.63	0.027052211054102063	temp
temp14	4.60	0.027052211054102063	temp
temp15	4.62	0.027052211054102063	temp
temp16	4.62	0.027052211054102063	temp
temp17	22.25	0.027052211054102063	temp
temp18	22.19	0.027052211054102063	temp
temp19	22.13	0.027052211054102063	temp
temp20	22.07	0.027052211054102063	temp
temp21	21.51	0.027052211054102063	temp
temp22	20.14	0.027052211054102063	temp
temp23	15.99	0.027052211054102063	temp
temp24	13.28	0.027052211054102063	temp
temp25	10.88	0.027052211054102063	temp
temp26	9.62	0.027052211054102063	temp
temp27	7.44	0.027052211054102063	temp
temp28	6.50	0.027052211054102063	temp
temp29	6.31	0.027052211054102063	temp
temp30	5.96	0.027052211054102063	temp
temp31	5.79	0.027052211054102063	temp
temp32	5.79	0.027052211054102063	temp
temp33	5.79	0.027052211054102063	temp
temp34	22.87	0.027052211054102063	temp
temp35	22.69	0.027052211054102063	temp
temp36	22.51	0.027052211054102063	temp
temp37	22.00	0.027052211054102063	temp
temp38	21.28	0.027052211054102063	temp
temp39	20.36	0.027052211054102063	temp
temp40	19.30	0.027052211054102063	temp
temp41	16.02	0.027052211054102063	temp
temp42	12.75	0.027052211054102063	temp
temp43	10.70	0.027052211054102063	temp
temp44	8.70	0.027052211054102063	temp
temp45	7.66	0.027052211054102063	temp
temp46	6.62	0.027052211054102063	temp
temp47	6.14	0.027052211054102063	temp
temp48	6.10	0.027052211054102063	temp
temp49	5.92	0.027052211054102063	temp
temp50	5.92	0.027052211054102063	temp
temp51	19.50	0.027052211054102063	temp
temp52	19.47	0.027052211054102063	temp
temp53	19.44	0.027052211054102063	temp
temp54	19.41	0.027052211054102063	temp
temp55	18.75	0.027052211054102063	temp
temp56	17.20	0.027052211054102063	temp
temp57	14.16	0.027052211054102063	temp
temp58	11.01	0.027052211054102063	temp
temp59	9.09	0.027052211054102063	temp
temp60	8.46	0.027052211054102063	temp
temp61	7.49	0.027052211054102063	temp
temp62	7.10	0.027052211054102063	temp
temp63	6.82	0.027052211054102063	temp
temp64	17.35	0.027052211054102063	temp
temp65	17.33	0.027052211054102063	temp
temp66	17.32	0.027052211054102063	temp
temp67	17.31	0.027052211054102063	temp
temp68	17.30	0.027052211054102063	temp
temp69	17.28	0.027052211054102063	temp
temp70	17.04	0.027052211054102063	temp
temp71	14.30	0.027052211054102063	temp
temp72	10.77	0.027052211054102063	temp
temp73	9.40	0.027052211054102063	temp
temp74	8.11	0.027052211054102063	temp
temp75	7.63	0.027052211054102063	temp
temp76	7.23	0.027052211054102063	temp
temp77	6.93	0.027052211054102063	temp
temp78	14.57	0.027052211054102063	temp
temp79	14.59	0.027052211054102063	temp
temp80	14.59	0.027052211054102063	temp
temp81	14.59	0.027052211054102063	temp
temp82	14.58	0.027052211054102063	temp
temp83	14.59	0.027052211054102063	temp
temp84	14.59	0.027052211054102063	temp
temp85	14.58	0.027052211054102063	temp
temp86	14.38	0.027052211054102063	temp
temp87	11.54	0.027052211054102063	temp
temp88	8.96	0.027052211054102063	temp
temp89	7.89	0.027052211054102063	temp
temp90	7.46	0.027052211054102063	temp
temp91	7.02	0.027052211054102063	temp
temp92	6.72	0.027052211054102063	temp
temp93	6.48	0.027052211054102063	temp
temp94	6.48	0.027052211054102063	temp
temp95	9.41	0.027052211054102063	temp
temp96	8.76	0.027052211054102063	temp
temp97	8.01	0.027052211054102063	temp
temp98	6.66	0.027052211054102063	temp
temp99	5.86	0.027052211054102063	temp
temp100	5.40	0.027052211054102063	temp
temp101	4.98	0.027052211054102063	temp
temp102	4.85	0.027052211054102063	temp
temp103	4.79	0.027052211054102063	temp
temp104	4.63	0.027052211054102063	temp
temp105	4.58	0.027052211054102063	temp
temp106	4.48	0.027052211054102063	temp
temp107	4.45	0.027052211054102063	temp
temp108	4.39	0.027052211054102063	temp
temp109	4.28	0.027052211054102063	temp
temp110	4.25	0.027052211054102063	temp
temp111	4.25	0.027052211054102063	temp
temp112	19.21	0.027052211054102063	temp
temp113	18.00	0.027052211054102063	temp
temp114	16.66	0.027052211054102063	temp
temp115	15.03	0.027052211054102063	temp
temp116	12.14	0.027052211054102063	temp
temp117	9.27	0.027052211054102063	temp
temp118	7.48	0.027052211054102063	temp
temp119	7.11	0.027052211054102063	temp
temp120	6.98	0.027052211054102063	temp
temp121	6.88	0.027052211054102063	temp
temp122	6.78	0.027052211054102063	temp
temp123	6.73	0.027052211054102063	temp
temp124	6.69	0.027052211054102063	temp
temp125	26.62	0.027052211054102063	temp
temp126	26.33	0.027052211054102063	temp
temp127	25.26	0.027052211054102063	temp
temp128	22.15	0.027052211054102063	temp
temp129	17.41	0.027052211054102063	temp
temp130	14.15	0.027052211054102063	temp
temp131	11.30	0.027052211054102063	temp
temp132	9.60	0.027052211054102063	temp
temp133	8.08	0.027052211054102063	temp
temp134	7.78	0.027052211054102063	temp
temp135	7.17	0.027052211054102063	temp
temp136	7.35	0.027052211054102063	temp
temp137	6.92	0.027052211054102063	temp
temp138	20.48	0.027052211054102063	temp
temp139	20.41	0.027052211054102063	temp
temp140	20.33	0.027052211054102063	temp
temp141	20.27	0.027052211054102063	temp
temp142	20.20	0.027052211054102063	temp
temp143	18.95	0.027052211054102063	temp
temp144	16.65	0.027052211054102063	temp
temp145	12.34	0.027052211054102063	temp
temp146	9.81	0.027052211054102063	temp
temp147	8.64	0.027052211054102063	temp
temp148	7.79	0.027052211054102063	temp
temp149	7.52	0.027052211054102063	temp
temp150	7.20	0.027052211054102063	temp
temp151	7.05	0.027052211054102063	temp
temp152	15.38	0.027052211054102063	temp
temp153	15.42	0.027052211054102063	temp
temp154	15.39	0.027052211054102063	temp
temp155	15.38	0.027052211054102063	temp
temp156	15.39	0.027052211054102063	temp
temp157	15.39	0.027052211054102063	temp
temp158	15.38	0.027052211054102063	temp
temp159	15.37	0.027052211054102063	temp
temp160	13.34	0.027052211054102063	temp
temp161	11.31	0.027052211054102063	temp
temp162	9.28	0.027052211054102063	temp
temp163	7.89	0.027052211054102063	temp
temp164	7.85	0.027052211054102063	temp
temp165	7.40	0.027052211054102063	temp
temp166	7.25	0.027052211054102063	temp
temp167	7.17	0.027052211054102063	temp
temp168	7.17	0.027052211054102063	temp
temp169	5.12	0.027052211054102063	temp
temp170	5.10	0.027052211054102063	temp
temp171	5.06	0.027052211054102063	temp
temp172	4.99	0.027052211054102063	temp
temp173	4.97	0.027052211054102063	temp
temp174	4.98	0.027052211054102063	temp
temp175	4.97	0.027052211054102063	temp
temp176	4.95	0.027052211054102063	temp
temp177	4.95	0.027052211054102063	temp
temp178	4.93	0.027052211054102063	temp
temp179	4.93	0.027052211054102063	temp
temp180	4.93	0.027052211054102063	temp
temp181	4.96	0.027052211054102063	temp
temp182	4.98	0.027052211054102063	temp
temp183	4.98	0.027052211054102063	temp
temp184	4.98	0.027052211054102063	temp
temp185	4.98	0.027052211054102063	temp
temp186	16.99	0.027052211054102063	temp
temp187	15.98	0.027052211054102063	temp
temp188	14.83	0.027052211054102063	temp
temp189	12.44	0.027052211054102063	temp
temp190	11.16	0.027052211054102063	temp
temp191	9.49	0.027052211054102063	temp
temp192	7.36	0.027052211054102063	temp
temp193	6.90	0.027052211054102063	temp
temp194	6.87	0.027052211054102063	temp
temp195	6.26	0.027052211054102063	temp
temp196	6.35	0.027052211054102063	temp
temp197	6.11	0.027052211054102063	temp
temp198	6.35	0.027052211054102063	temp
temp199	6.06	0.027052211054102063	temp
temp200	13.99	0.027052211054102063	temp
temp201	12.42	0.027052211054102063	temp
temp202	11.53	0.027052211054102063	temp
temp203	9.73	0.027052211054102063	temp
temp204	7.58	0.027052211054102063	temp
temp205	6.80	0.027052211054102063	temp
temp206	6.50	0.027052211054102063	temp
temp207	6.26	0.027052211054102063	temp
temp208	6.17	0.027052211054102063	temp
temp209	6.14	0.027052211054102063	temp
temp210	6.07	0.027052211054102063	temp
temp211	5.96	0.027052211054102063	temp
temp212	18.72	0.027052211054102063	temp
temp213	17.64	0.027052211054102063	temp
temp214	16.06	0.027052211054102063	temp
temp215	12.52	0.027052211054102063	temp
temp216	9.22	0.027052211054102063	temp
temp217	7.63	0.027052211054102063	temp
temp218	6.88	0.027052211054102063	temp
temp219	6.51	0.027052211054102063	temp
temp220	6.37	0.027052211054102063	temp
temp221	6.30	0.027052211054102063	temp
temp222	6.21	0.027052211054102063	temp
temp223	6.14	0.027052211054102063	temp
temp224	23.69	0.027052211054102063	temp
temp225	23.10	0.027052211054102063	temp
temp226	22.24	0.027052211054102063	temp
temp227	21.32	0.027052211054102063	temp
temp228	20.34	0.027052211054102063	temp
temp229	15.95	0.027052211054102063	temp
temp230	12.04	0.027052211054102063	temp
temp231	9.11	0.027052211054102063	temp
temp232	7.36	0.027052211054102063	temp
temp233	7.09	0.027052211054102063	temp
temp234	6.66	0.027052211054102063	temp
temp235	6.44	0.027052211054102063	temp
temp236	6.35	0.027052211054102063	temp
temp237	6.28	0.027052211054102063	temp
temp238	18.40	0.027052211054102063	temp
temp239	18.45	0.027052211054102063	temp
temp240	18.44	0.027052211054102063	temp
temp241	18.44	0.027052211054102063	temp
temp242	18.41	0.027052211054102063	temp
temp243	18.43	0.027052211054102063	temp
temp244	15.01	0.027052211054102063	temp
temp245	11.56	0.027052211054102063	temp
temp246	9.47	0.027052211054102063	temp
temp247	7.98	0.027052211054102063	temp
temp248	6.99	0.027052211054102063	temp
temp249	6.79	0.027052211054102063	temp
temp250	6.62	0.027052211054102063	temp
temp251	6.45	0.027052211054102063	temp
temp252	14.38	0.027052211054102063	temp
temp253	14.39	0.027052211054102063	temp
temp254	14.38	0.027052211054102063	temp
temp255	14.40	0.027052211054102063	temp
temp256	14.40	0.027052211054102063	temp
temp257	14.39	0.027052211054102063	temp
temp258	12.20	0.027052211054102063	temp
temp259	9.22	0.027052211054102063	temp
temp260	7.99	0.027052211054102063	temp
temp261	7.15	0.027052211054102063	temp
temp262	6.88	0.027052211054102063	temp
temp263	6.68	0.027052211054102063	temp
temp264	6.55	0.027052211054102063	temp
temp265	13.11	0.027052211054102063	temp
temp266	13.11	0.027052211054102063	temp
temp267	13.10	0.027052211054102063	temp
temp268	13.11	0.027052211054102063	temp
temp269	13.11	0.027052211054102063	temp
temp270	13.10	0.027052211054102063	temp
temp271	13.09	0.027052211054102063	temp
temp272	13.05	0.027052211054102063	temp
temp273	12.67	0.027052211054102063	temp
temp274	10.13	0.027052211054102063	temp
temp275	8.06	0.027052211054102063	temp
temp276	7.39	0.027052211054102063	temp
temp277	7.02	0.027052211054102063	temp
temp278	6.79	0.027052211054102063	temp
temp279	6.60	0.027052211054102063	temp
temp280	6.60	0.027052211054102063	temp
temp281	6.60	0.027052211054102063	temp
temp282	13.04	0.027052211054102063	temp
temp283	13.04	0.027052211054102063	temp
temp284	13.03	0.027052211054102063	temp
temp285	13.03	0.027052211054102063	temp
temp286	13.03	0.027052211054102063	temp
temp287	13.01	0.027052211054102063	temp
temp288	13.00	0.027052211054102063	temp
temp289	12.62	0.027052211054102063	temp
temp290	10.10	0.027052211054102063	temp
temp291	8.07	0.027052211054102063	temp
temp292	7.40	0.027052211054102063	temp
temp293	7.07	0.027052211054102063	temp
temp294	6.79	0.027052211054102063	temp
temp295	6.55	0.027052211054102063	temp
temp296	10.70	0.027052211054102063	temp
temp297	10.71	0.027052211054102063	temp
temp298	10.71	0.027052211054102063	temp
temp299	10.71	0.027052211054102063	temp
temp300	10.71	0.027052211054102063	temp
temp301	10.70	0.027052211054102063	temp
temp302	10.70	0.027052211054102063	temp
temp303	10.70	0.027052211054102063	temp
temp304	10.69	0.027052211054102063	temp
temp305	8.37	0.027052211054102063	temp
temp306	7.33	0.027052211054102063	temp
temp307	7.02	0.027052211054102063	temp
temp308	6.83	0.027052211054102063	temp
temp309	6.54	0.027052211054102063	temp
temp310	8.87	0.027052211054102063	temp
temp311	8.87	0.027052211054102063	temp
temp312	8.88	0.027052211054102063	temp
temp313	8.87	0.027052211054102063	temp
temp314	8.86	0.027052211054102063	temp
temp315	8.87	0.027052211054102063	temp
temp316	8.87	0.027052211054102063	temp
temp317	8.86	0.027052211054102063	temp
temp318	8.85	0.027052211054102063	temp
temp319	8.85	0.027052211054102063	temp
temp320	7.72	0.027052211054102063	temp
temp321	7.11	0.027052211054102063	temp
temp322	6.83	0.027052211054102063	temp
temp323	6.59	0.027052211054102063	temp
temp324	6.48	0.027052211054102063	temp
temp325	6.96	0.027052211054102063	temp
temp326	6.96	0.027052211054102063	temp
temp327	6.96	0.027052211054102063	temp
temp328	6.96	0.027052211054102063	temp
temp329	6.96	0.027052211054102063	temp
temp330	6.96	0.027052211054102063	temp
temp331	6.96	0.027052211054102063	temp
temp332	6.96	0.027052211054102063	temp
temp333	6.96	0.027052211054102063	temp
temp334	6.96	0.027052211054102063	temp
temp335	6.96	0.027052211054102063	temp
temp336	6.93	0.027052211054102063	temp
temp337	6.86	0.027052211054102063	temp
temp338	6.61	0.027052211054102063	temp
temp339	6.07	0.027052211054102063	temp
temp340	6.07	0.027052211054102063	temp
temp341	6.06	0.027052211054102063	temp
temp342	6.06	0.027052211054102063	temp
temp343	6.05	0.027052211054102063	temp
temp344	6.05	0.027052211054102063	temp
temp345	6.05	0.027052211054102063	temp
temp346	6.05	0.027052211054102063	temp
temp347	6.04	0.027052211054102063	temp
temp348	6.04	0.027052211054102063	temp
temp349	6.04	0.027052211054102063	temp
temp350	5.98	0.027052211054102063	temp
temp351	6.38	0.027052211054102063	temp
temp352	6.61	0.027052211054102063	temp
temp353	6.51	0.027052211054102063	temp
temp354	1.37	0.027052211054102063	temp
temp355	1.40	0.027052211054102063	temp
temp356	1.45	0.027052211054102063	temp
temp357	1.84	0.027052211054102063	temp
temp358	2.01	0.027052211054102063	temp
temp359	2.05	0.027052211054102063	temp
temp360	2.31	0.027052211054102063	temp
temp361	2.38	0.027052211054102063	temp
temp362	2.52	0.027052211054102063	temp
temp363	2.67	0.027052211054102063	temp
temp364	2.75	0.027052211054102063	temp
temp365	2.89	0.027052211054102063	temp
temp366	2.99	0.027052211054102063	temp
temp367	3.16	0.027052211054102063	temp
ch40	1.10	0.004744476717429404	ch4
ch41	1.41	0.004744476717429404	ch4
ch42	0.54	0.004744476717429404	ch4
ch43	0.07	0.004744476717429404	ch4
ch44	0.44	0.004744476717429404	ch4
ch45	0.19	0.004744476717429404	ch4
ch46	0.68	0.004744476717429404	ch4
ch47	20.23	0.004744476717429404	ch4
ch48	18.19	0.004744476717429404	ch4
ch49	1.95	0.004744476717429404	ch4
ch410	2.77	0.004744476717429404	ch4
ch411	0.26	0.004744476717429404	ch4
ch412	0.01	0.004744476717429404	ch4
ch413	11.61	0.004744476717429404	ch4
ch414	37.23	0.004744476717429404	ch4
ch415	42.28	0.004744476717429404	ch4
ch416	61.27	0.004744476717429404	ch4
ch417	123.84	0.004744476717429404	ch4
ch418	444.63	0.004744476717429404	ch4
ch419	612.76	0.004744476717429404	ch4
ch420	0.31	0.004744476717429404	ch4
ch421	0.28	0.004744476717429404	ch4
ch422	0.34	0.004744476717429404	ch4
ch423	0.23	0.004744476717429404	ch4
ch424	0.26	0.004744476717429404	ch4
ch425	0.09	0.004744476717429404	ch4
ch426	24.33	0.004744476717429404	ch4
ch427	72.63	0.004744476717429404	ch4
ch428	87.38	0.004744476717429404	ch4
ch429	207.07	0.004744476717429404	ch4
ch430	237.02	0.004744476717429404	ch4
ch431	395.76	0.004744476717429404	ch4
ch432	594.88	0.004744476717429404	ch4
ch433	1404.09	0.004744476717429404	ch4
ch434	0.63	0.004744476717429404	ch4
ch435	0.63	0.004744476717429404	ch4
ch436	0.68	0.004744476717429404	ch4
ch437	5.67	0.004744476717429404	ch4
ch438	60.59	0.004744476717429404	ch4
ch439	99.76	0.004744476717429404	ch4
ch440	155.48	0.004744476717429404	ch4
ch441	166.57	0.004744476717429404	ch4
ch442	442.20	0.004744476717429404	ch4
ch443	440.03	0.004744476717429404	ch4
ch444	1014.24	0.004744476717429404	ch4
ch445	0.07	0.004744476717429404	ch4
ch446	0.07	0.004744476717429404	ch4
ch447	0.18	0.004744476717429404	ch4
ch448	0.22	0.004744476717429404	ch4
ch449	4.96	0.004744476717429404	ch4
ch450	80.56	0.004744476717429404	ch4
ch451	146.67	0.004744476717429404	ch4
ch452	184.91	0.004744476717429404	ch4
ch453	230.50	0.004744476717429404	ch4
ch454	350.28	0.004744476717429404	ch4
ch455	503.71	0.004744476717429404	ch4
ch456	1199.88	0.004744476717429404	ch4
ch457	1.39	0.004744476717429404	ch4
ch458	1.26	0.004744476717429404	ch4
ch459	0.96	0.004744476717429404	ch4
ch460	1.00	0.004744476717429404	ch4
ch461	1.05	0.004744476717429404	ch4
ch462	2.46	0.004744476717429404	ch4
ch463	202.74	0.004744476717429404	ch4
ch464	215.46	0.004744476717429404	ch4
ch465	338.28	0.004744476717429404	ch4
ch466	634.18	0.004744476717429404	ch4
ch467	1095.10	0.004744476717429404	ch4
ch468	0.13	0.004744476717429404	ch4
ch469	0.14	0.004744476717429404	ch4
ch470	0.06	0.004744476717429404	ch4
ch471	10.70	0.004744476717429404	ch4
ch472	481.00	0.004744476717429404	ch4
ch473	640.13	0.004744476717429404	ch4
ch474	792.23	0.004744476717429404	ch4
ch475	1416.92	0.004744476717429404	ch4
ch476	0.44	0.004744476717429404	ch4
ch477	0.71	0.004744476717429404	ch4
ch478	0.69	0.004744476717429404	ch4
ch479	0.54	0.004744476717429404	ch4
ch480	0.88	0.004744476717429404	ch4
ch481	0.48	0.004744476717429404	ch4
ch482	80.01	0.004744476717429404	ch4
ch483	695.70	0.004744476717429404	ch4
ch484	1349.96	0.004744476717429404	ch4
ch485	1977.73	0.004744476717429404	ch4
ch486	0.33	0.004744476717429404	ch4
ch487	17.91	0.004744476717429404	ch4
ch488	590.95	0.004744476717429404	ch4
ch489	1031.00	0.004744476717429404	ch4
* model command line
model_wrapper.bat
* model input/output
E:\polybox\SURF\MobTrait\results\physicalmodel\seasonal\3_methane_iteration_revised\json_rotsee_simstrat.tpl	E:\polybox\SURF\MobTrait\results\physicalmodel\seasonal\3_methane_iteration_revised\json_rotsee_simstrat.par
E:\polybox\SURF\MobTrait\results\diversity/modeldefinition.tpl	E:\polybox\SURF\MobTrait\results\diversity/modeldefinition.json
T_out_output.ins	Rotsee_Output/T_out.dat
CH4_out_output.ins	E:\polybox\SURF\MobTrait\results\diversity/CH4_out.dat
* prior information
